
*** ChampSim Multicore Out-of-Order Simulator ***

Warmup Instructions: 200000000
Simulation Instructions: 200000000
Number of CPUs: 2
Off-chip DRAM Size: 4 GiB Channels: 1 Width: 64-bit Data Rate: 3200 MT/s

VirtualMemory physical capacity: 8588881920 num_ppages: 2096895
VirtualMemory page size: 4096 log2_page_size: 12

CPU 0 runs traces/410.bwaves-945B.champsimtrace.xz
CPU 1 runs traces/410.bwaves-945B.champsimtrace.xz
CPU 0 Bimodal branch predictor
Basic BTB sets: 1024 ways: 8 indirect buffer size: 4096 RAS size: 64
CPU 1 Bimodal branch predictor
Basic BTB sets: 1024 ways: 8 indirect buffer size: 4096 RAS size: 64
Caught signal: 2

*** ChampSim Multicore Out-of-Order Simulator ***

Warmup Instructions: 200000000
Simulation Instructions: 200000000
Number of CPUs: 2
Off-chip DRAM Size: 4 GiB Channels: 1 Width: 64-bit Data Rate: 3200 MT/s

VirtualMemory physical capacity: 8588881920 num_ppages: 2096895
VirtualMemory page size: 4096 log2_page_size: 12

CPU 0 runs traces/410.bwaves-945B.champsimtrace.xz
CPU 1 runs traces/410.bwaves-945B.champsimtrace.xz
CPU 0 Bimodal branch predictor
Basic BTB sets: 1024 ways: 8 indirect buffer size: 4096 RAS size: 64
CPU 1 Bimodal branch predictor
Basic BTB sets: 1024 ways: 8 indirect buffer size: 4096 RAS size: 64
Heartbeat CPU 0 instructions: 10000000 cycles: 2500250 heartbeat IPC: 3.9996 cumulative IPC: 3.9996 (Simulation time: 0 hr 1 min 22 sec) 
Heartbeat CPU 1 instructions: 10000000 cycles: 2500266 heartbeat IPC: 3.99957 cumulative IPC: 3.99957 (Simulation time: 0 hr 1 min 22 sec) 
Heartbeat CPU 0 instructions: 20000000 cycles: 5000250 heartbeat IPC: 4 cumulative IPC: 3.9998 (Simulation time: 0 hr 2 min 45 sec) 
Heartbeat CPU 1 instructions: 20000000 cycles: 5000266 heartbeat IPC: 4 cumulative IPC: 3.99979 (Simulation time: 0 hr 2 min 45 sec) 
Heartbeat CPU 0 instructions: 30000000 cycles: 7500250 heartbeat IPC: 4 cumulative IPC: 3.99987 (Simulation time: 0 hr 4 min 9 sec) 
Heartbeat CPU 1 instructions: 30000000 cycles: 7500266 heartbeat IPC: 4 cumulative IPC: 3.99986 (Simulation time: 0 hr 4 min 9 sec) 
Heartbeat CPU 0 instructions: 40000000 cycles: 10000250 heartbeat IPC: 4 cumulative IPC: 3.9999 (Simulation time: 0 hr 5 min 31 sec) 
Heartbeat CPU 1 instructions: 40000000 cycles: 10000266 heartbeat IPC: 4 cumulative IPC: 3.99989 (Simulation time: 0 hr 5 min 31 sec) 
Heartbeat CPU 0 instructions: 50000000 cycles: 12500250 heartbeat IPC: 4 cumulative IPC: 3.99992 (Simulation time: 0 hr 6 min 55 sec) 
Heartbeat CPU 1 instructions: 50000000 cycles: 12500266 heartbeat IPC: 4 cumulative IPC: 3.99991 (Simulation time: 0 hr 6 min 55 sec) 
Heartbeat CPU 0 instructions: 60000000 cycles: 15000250 heartbeat IPC: 4 cumulative IPC: 3.99993 (Simulation time: 0 hr 8 min 25 sec) 
Heartbeat CPU 1 instructions: 60000000 cycles: 15000266 heartbeat IPC: 4 cumulative IPC: 3.99993 (Simulation time: 0 hr 8 min 25 sec) 
Heartbeat CPU 0 instructions: 70000000 cycles: 17500250 heartbeat IPC: 4 cumulative IPC: 3.99994 (Simulation time: 0 hr 9 min 54 sec) 
Heartbeat CPU 1 instructions: 70000000 cycles: 17500266 heartbeat IPC: 4 cumulative IPC: 3.99994 (Simulation time: 0 hr 9 min 54 sec) 
Heartbeat CPU 0 instructions: 80000001 cycles: 20000315 heartbeat IPC: 3.9999 cumulative IPC: 3.99994 (Simulation time: 0 hr 11 min 16 sec) 
Heartbeat CPU 1 instructions: 80000003 cycles: 20000336 heartbeat IPC: 3.99989 cumulative IPC: 3.99993 (Simulation time: 0 hr 11 min 16 sec) 
Heartbeat CPU 0 instructions: 90000001 cycles: 22500315 heartbeat IPC: 4 cumulative IPC: 3.99994 (Simulation time: 0 hr 12 min 40 sec) 
Heartbeat CPU 1 instructions: 90000003 cycles: 22500336 heartbeat IPC: 4 cumulative IPC: 3.99994 (Simulation time: 0 hr 12 min 40 sec) 
Heartbeat CPU 0 instructions: 100000000 cycles: 25000329 heartbeat IPC: 3.99998 cumulative IPC: 3.99995 (Simulation time: 0 hr 14 min 6 sec) 
Heartbeat CPU 1 instructions: 100000002 cycles: 25000379 heartbeat IPC: 3.99993 cumulative IPC: 3.99994 (Simulation time: 0 hr 14 min 6 sec) 
Heartbeat CPU 0 instructions: 110000000 cycles: 27500329 heartbeat IPC: 4 cumulative IPC: 3.99995 (Simulation time: 0 hr 15 min 28 sec) 
Heartbeat CPU 1 instructions: 110000002 cycles: 27500379 heartbeat IPC: 4 cumulative IPC: 3.99994 (Simulation time: 0 hr 15 min 28 sec) 
Heartbeat CPU 0 instructions: 120000002 cycles: 30000411 heartbeat IPC: 3.99987 cumulative IPC: 3.99995 (Simulation time: 0 hr 16 min 49 sec) 
Heartbeat CPU 1 instructions: 120000002 cycles: 30000473 heartbeat IPC: 3.99985 cumulative IPC: 3.99994 (Simulation time: 0 hr 16 min 49 sec) 
Heartbeat CPU 0 instructions: 130000002 cycles: 32500411 heartbeat IPC: 4 cumulative IPC: 3.99995 (Simulation time: 0 hr 18 min 17 sec) 
Heartbeat CPU 1 instructions: 130000002 cycles: 32500473 heartbeat IPC: 4 cumulative IPC: 3.99994 (Simulation time: 0 hr 18 min 17 sec) 
Heartbeat CPU 0 instructions: 140000002 cycles: 35000454 heartbeat IPC: 3.99993 cumulative IPC: 3.99995 (Simulation time: 0 hr 19 min 39 sec) 
Heartbeat CPU 1 instructions: 140000001 cycles: 35000528 heartbeat IPC: 3.99991 cumulative IPC: 3.99994 (Simulation time: 0 hr 19 min 39 sec) 
Heartbeat CPU 0 instructions: 150000000 cycles: 37500542 heartbeat IPC: 3.99986 cumulative IPC: 3.99994 (Simulation time: 0 hr 21 min 0 sec) 
Heartbeat CPU 1 instructions: 150000003 cycles: 37500617 heartbeat IPC: 3.99986 cumulative IPC: 3.99993 (Simulation time: 0 hr 21 min 0 sec) 
Heartbeat CPU 0 instructions: 160000000 cycles: 40000542 heartbeat IPC: 4 cumulative IPC: 3.99995 (Simulation time: 0 hr 22 min 19 sec) 
Heartbeat CPU 1 instructions: 160000003 cycles: 40000617 heartbeat IPC: 4 cumulative IPC: 3.99994 (Simulation time: 0 hr 22 min 19 sec) 
Heartbeat CPU 0 instructions: 170000003 cycles: 42500746 heartbeat IPC: 3.99967 cumulative IPC: 3.99993 (Simulation time: 0 hr 23 min 40 sec) 
Heartbeat CPU 1 instructions: 170000001 cycles: 42500856 heartbeat IPC: 3.99962 cumulative IPC: 3.99992 (Simulation time: 0 hr 23 min 40 sec) 
